# arXiv Content
# 自动从 arXiv HTML 页面提取

## Abstract

Wave breaking injects turbulence and bubbles into the upper ocean, modulating air–sea exchange of momentum, heat, gases, and sea-spray aerosols. These fluxes depend nonlinearly on sea state but remain poorly represented in coupled atmosphere–wave–ocean models, where air-entrainment velocity (VaV_{a}) is often parameterized using wind speed or significant wave height alone. We develop a global machine-learning parameterization ofVaV_{a}trained on a 43-year WAVEWATCH III simulation that resolves the breaker-front distributionΛ​(c)\Lambda(c)and associated energetics. A multilayer perceptron with seven physically motivated predictors (wind speed, wave height, wave age, steepness, direction, and depth) reproduces spectral-referenceVaV_{a}with high skill. The model reduces longstanding biases in bulk formulas, notably overestimation in swell-dominated low latitudes and underestimation in storm tracks. Applied globally, the parameterization improves estimates of bubble-mediated CO2transfer velocity and sea-salt aerosol emission, reducing errors by roughly an order of magnitude. Validation against independent HiWinGS observations supports robust performance in deep-water, high-wind conditions.

## Introduction

Breaking surface waves exert a first-order control on air-sea exchanges of momentum, heat, and gases by generating intense near-surface turbulence, entraining air, and producing whitecaps and bubble plumes that enhance surface renewal and bubble-mediated transfer[<]e.g.,¿Thorpe1995, Melville1996, deane2002scale, Melville2016, ruth2022three, pelaez2024dynamics, deike2025universal, di2025air. Although whitecaps cover only a small fraction of the ocean surface, they account for a disproportionate share of wave-energy dissipation and can dominate gas transfer under moderate-to-high winds[Banner2000,Callaghan2008images,Sutherland2016,callaghan2012observed]. Because wave breaking is intermittent and strongly modulated by sea state (e.g., wind forcing, wave age, steepness, and swell), it remains challenging to represent consistently in coupled atmosphere–wave–ocean models and in large-scale diagnostics derived from reanalyses and wave hindcasts. As a result, many applications still rely on wind-speed-only (or semi-bulk) formulations that can miss substantial regional and regime-dependent variability associated with changes in wave development and spectral shape[Deike2017,zhou2023sea].

A physically grounded framework for describing wave breaking is provided by the breaking-crest distributionΛ​(c)\Lambda(c), the mean length of breaking crests moving with phase speedccper unit surface area[phillips1985spectral]. Moments ofΛ​(c)\Lambda(c)connect breaking kinematics to energetics and enable sea-state-dependent estimates of dissipation and breaking intensity. Practical approaches to estimateΛ​(c)\Lambda(c)in spectral wave models have made it possible to evaluate global breaking statistics and their implications for air–sea exchange in a consistent, model-based manner[Romero2012,Romero2019]. Building on this foundation, air-entrainment velocityVaV_{a}provides a compact descriptor of breaking-driven air injection, linking wave-breaking statistics to bubble-mediated pathways that influence gas transfer and aerosol production[Deike2017]. Recent implementations ofΛ​(c)\Lambda(c)-based diagnostics in WAVEWATCH III (WW3) have enabled global estimates of sea-state-dependent air entrainment and associated bubble-mediated gas fluxes[Romero2019,zhou2023sea]. However, explicitly computingΛ​(c)\Lambda(c)and derived breaking diagnostics within operational or climate-scale workflows can be computationally expensive, and simplified parameterizations based only on wind speed can produce systematic biases[zhou2023sea].

In parallel, machine learning (ML) has emerged as an effective tool for learning nonlinear mappings in geophysical systems when the target quantity is well-defined and physically interpretable, and when the predictors are widely available from models or observations. ML approaches have been used across Earth system science for parameterization, emulation, and downscaling, including wave and air-sea applications where the goal is to capture sea-state dependence at low computational cost[<]e.g.,¿JamesOthers2018, ODonnchaOthers2018, ODonnchaOthers2019, LouOthers2021, ZhangOthers2022, SunOthers2022, DakarOthers2023, XuOthers2023. For wave-breaking-related quantities, a key requirement is portability: the model should be driven by predictors that are routinely available (e.g.,U10U_{10},HsH_{s}, wave age, steepness, direction, and depth) and should generalize across basins and regimes without ad hoc tuning. This motivates a surrogate approach that retains the physics embedded in the spectral,Λ​(c)\Lambda(c)-based reference while providing an efficient diagnostic that can be evaluated everywhere that standard wind and wave fields exist.

Here we develop a data-driven, computationally inexpensive surrogate forVaV_{a}by training a multilayer perceptron (MLP) on a 43-year global WW3 hindcast in whichΛ​(c)\Lambda(c)and associated breaking energetics are diagnosed. The model uses seven physically motivated predictors (significant wave heightHsH_{s}, 10-m wind speedU10U_{10}, wind direction, wave agecp/U10c_{p}/U_{10}, wave steepnesskp​Hs/2k_{p}H_{s}/2, and water depth) to reproduce the spectral-referenceVaV_{a}with high fidelity. We evaluate performance globally using withheld years (2019–2022) and validate against independent observations from HiWinGS[Brumer2017], focusing on the ability to capture both the magnitude and variability of air entrainment across sea states. Finally, we demonstrate how improved sea-state-dependentVaV_{a}propagates into two applications that are sensitive to breaking-driven bubbles: bubble-mediated gas transfer velocity and sea-salt aerosol emission, highlighting differences relative to wind-only and semi-bulk parameterizations.

The paper is organized as follows. Section 2 describes the WW3 simulations, predictor construction, and the MLP training. Section 3 evaluates the parameterization globally and against HiWinGS observations and quantifies implications for bubble-mediated gas transfer and sea-salt emission. Section 4 summarizes conclusions and limitations.
